#EXTM3U
#EXT-X-STREAM-INF:CLOSED-CAPTIONS=NONE,RESOLUTION=1920x1080,FRAME-RATE=25.000,CODECS="avc1.42c01f,mp4a.40.2",AVERAGE-BANDWIDTH=4800000,BANDWIDTH=6000000
http://nue01-edge03.itdc.ge/pirvelitv/tracks-v1a1/mono.m3u8?token=JbX7quyuYC2spIh9PpHDqeMQ6pO-W77Lte5EUHTUXCRewSJMhLxwzwVMC2FwYMLY-jancYRfL9VjSa2rumbi4NVnefKv8R_m2aEkcPIFy2dh1TGfe12B1B9h1NppCSNCbKd4z9BrlG6HdY2BZK6KG9TWuOGTvf3iARYlREBZDNM3c0sf_mK74-sX1K7aYDkLdDwEwSvHqAmoRWp-iYzZk_GoxTaCFX-5AIlhaOAwg-SrOeL6dRKV4mKu_5gCpLlQjMTt6glGGLI58nmDxlYFoIMPzyFru_RBw25BUKHMUkWv72Vz_9JiB1lxQ2v50Zqb
